PFOA_perfluorooctanoic_acid_CID1036_multiconf
     RDKit          3D

 25 24  0  0  0  0  0  0  0  0999 V2000
    7.1720   -3.4580   12.5020 C   0  0  2  0  0  0  0  0  0  0  0  0
    6.0510   -3.6590   13.2650 F   0  0  0  0  0  0  0  0  0  0  0  0
    6.6920   -3.0300   11.2910 F   0  0  0  0  0  0  0  0  0  0  0  0
    7.8560   -4.8040   12.2890 C   0  0  1  0  0  0  0  0  0  0  0  0
    9.1630   -4.5700   11.9660 F   0  0  0  0  0  0  0  0  0  0  0  0
    7.9020   -5.4860   13.4640 F   0  0  0  0  0  0  0  0  0  0  0  0
    7.2180   -5.6590   11.2120 C   0  0  2  0  0  0  0  0  0  0  0  0
    7.3050   -5.0140   10.0120 F   0  0  0  0  0  0  0  0  0  0  0  0
    5.8830   -5.7740   11.4590 F   0  0  0  0  0  0  0  0  0  0  0  0
    7.8550   -7.0330   11.0870 C   0  0  2  0  0  0  0  0  0  0  0  0
    9.0960   -7.0220   11.6590 F   0  0  0  0  0  0  0  0  0  0  0  0
    8.0840   -7.2990    9.7610 F   0  0  0  0  0  0  0  0  0  0  0  0
    6.9640   -8.0970   11.7080 C   0  0  0  0  0  0  0  0  0  0  0  0
    6.9400   -8.4280   12.8850 O   0  0  0  0  0  0  0  0  0  0  0  0
    6.1220   -8.6920   10.8370 O   0  0  0  0  0  0  0  0  0  0  0  0
    7.9730   -2.3240   13.1280 C   0  0  2  0  0  0  0  0  0  0  0  0
    8.9390   -1.9100   12.2680 F   0  0  0  0  0  0  0  0  0  0  0  0
    8.6520   -2.8340   14.2000 F   0  0  0  0  0  0  0  0  0  0  0  0
    7.1290   -1.1570   13.5830 C   0  0  1  0  0  0  0  0  0  0  0  0
    6.0530   -1.0100   12.7600 F   0  0  0  0  0  0  0  0  0  0  0  0
    6.6160   -1.3940   14.8220 F   0  0  0  0  0  0  0  0  0  0  0  0
    7.9570    0.1150   13.5850 C   0  0  2  0  0  0  0  0  0  0  0  0
    7.7330    0.8370   14.7130 F   0  0  0  0  0  0  0  0  0  0  0  0
    7.6550    0.9210   12.5410 F   0  0  0  0  0  0  0  0  0  0  0  0
    9.2850   -0.1290   13.5370 F   0  0  0  0  0  0  0  0  0  0  0  0
  1 16  1  0
  1  2  1  1
  3  1  1  0
  4  1  1  0
  4  6  1  1
  5  4  1  0
  7  9  1  1
  7  4  1  0
  8  7  1  0
 10  7  1  0
 10 11  1  1
 10 13  1  0
 12 10  1  0
 13 14  1  0
 15 13  2  0
 16 19  1  0
 16 18  1  1
 17 16  1  0
 19 22  1  0
 19 21  1  1
 20 19  1  0
 22 23  1  1
 24 22  1  0
 25 22  1  0
M  CHG  1  14  -1
M  END
