PFOA_perfluorooctanoic_acid_CID1036_multiconf
     RDKit          3D

 25 24  0  0  0  0  0  0  0  0999 V2000
   51.2170  -34.1020   19.7650 C   0  0  2  0  0  0  0  0  0  0  0  0
   51.9830  -32.9730   19.6380 F   0  0  0  0  0  0  0  0  0  0  0  0
   51.7400  -34.9780   18.8480 F   0  0  0  0  0  0  0  0  0  0  0  0
   49.7910  -33.7680   19.3390 C   0  0  1  0  0  0  0  0  0  0  0  0
   49.0400  -33.5950   20.4670 F   0  0  0  0  0  0  0  0  0  0  0  0
   49.7700  -32.5610   18.7140 F   0  0  0  0  0  0  0  0  0  0  0  0
   49.1450  -34.8230   18.4630 C   0  0  2  0  0  0  0  0  0  0  0  0
   47.8520  -35.0100   18.8590 F   0  0  0  0  0  0  0  0  0  0  0  0
   49.7590  -36.0210   18.6700 F   0  0  0  0  0  0  0  0  0  0  0  0
   49.1670  -34.4640   16.9860 C   0  0  2  0  0  0  0  0  0  0  0  0
   50.4590  -34.4010   16.5430 F   0  0  0  0  0  0  0  0  0  0  0  0
   48.6820  -33.1910   16.8300 F   0  0  0  0  0  0  0  0  0  0  0  0
   48.3490  -35.4600   16.1790 C   0  0  0  0  0  0  0  0  0  0  0  0
   48.0010  -36.5750   16.5400 O   0  0  0  0  0  0  0  0  0  0  0  0
   47.9800  -35.0140   14.9590 O   0  0  0  0  0  0  0  0  0  0  0  0
   51.4460  -34.6750   21.1580 C   0  0  2  0  0  0  0  0  0  0  0  0
   50.4990  -35.6080   21.4370 F   0  0  0  0  0  0  0  0  0  0  0  0
   51.2300  -33.6720   22.0630 F   0  0  0  0  0  0  0  0  0  0  0  0
   52.8300  -35.2430   21.3670 C   0  0  1  0  0  0  0  0  0  0  0  0
   53.2220  -35.9350   20.2600 F   0  0  0  0  0  0  0  0  0  0  0  0
   53.7390  -34.2400   21.5150 F   0  0  0  0  0  0  0  0  0  0  0  0
   52.8420  -36.1550   22.5790 C   0  0  2  0  0  0  0  0  0  0  0  0
   54.0760  -36.1920   23.1450 F   0  0  0  0  0  0  0  0  0  0  0  0
   52.5210  -37.4300   22.2610 F   0  0  0  0  0  0  0  0  0  0  0  0
   51.9850  -35.7500   23.5420 F   0  0  0  0  0  0  0  0  0  0  0  0
  1 16  1  0
  1  2  1  1
  3  1  1  0
  4  1  1  0
  4  5  1  1
  6  4  1  0
  7  9  1  6
  7  8  1  0
  7  4  1  0
 10  7  1  0
 10 11  1  6
 12 10  1  0
 13 14  1  0
 13 10  1  0
 15 13  2  0
 16 19  1  0
 16 17  1  1
 16 18  1  0
 19 21  1  1
 19 22  1  0
 20 19  1  0
 22 23  1  1
 22 25  1  0
 24 22  1  0
M  CHG  1  14  -1
M  END
