PFOA_perfluorooctanoic_acid_CID1036_multiconf
     RDKit          3D

 25 24  0  0  0  0  0  0  0  0999 V2000
  -20.5780  -15.0280   -1.9600 C   0  0  2  0  0  0  0  0  0  0  0  0
  -19.7500  -16.0900   -1.7000 F   0  0  0  0  0  0  0  0  0  0  0  0
  -21.7420  -15.3290   -1.3000 F   0  0  0  0  0  0  0  0  0  0  0  0
  -20.8760  -15.0030   -3.4550 C   0  0  1  0  0  0  0  0  0  0  0  0
  -22.1510  -14.5440   -3.6260 F   0  0  0  0  0  0  0  0  0  0  0  0
  -20.0850  -14.0790   -4.0650 F   0  0  0  0  0  0  0  0  0  0  0  0
  -20.7300  -16.3490   -4.1370 C   0  0  2  0  0  0  0  0  0  0  0  0
  -21.6360  -17.2230   -3.6100 F   0  0  0  0  0  0  0  0  0  0  0  0
  -19.5100  -16.8770   -3.8390 F   0  0  0  0  0  0  0  0  0  0  0  0
  -20.9230  -16.2770   -5.6430 C   0  0  2  0  0  0  0  0  0  0  0  0
  -19.7890  -15.7930   -6.2330 F   0  0  0  0  0  0  0  0  0  0  0  0
  -21.8880  -15.3440   -5.9240 F   0  0  0  0  0  0  0  0  0  0  0  0
  -21.3050  -17.6390   -6.2000 C   0  0  0  0  0  0  0  0  0  0  0  0
  -20.7850  -18.7100   -5.9220 O   0  0  0  0  0  0  0  0  0  0  0  0
  -22.3360  -17.6110   -7.0720 O   0  0  0  0  0  0  0  0  0  0  0  0
  -19.9700  -13.7880   -1.3170 C   0  0  2  0  0  0  0  0  0  0  0  0
  -20.3520  -12.6770   -2.0000 F   0  0  0  0  0  0  0  0  0  0  0  0
  -18.6140  -13.8540   -1.4810 F   0  0  0  0  0  0  0  0  0  0  0  0
  -20.2860  -13.6430    0.1530 C   0  0  1  0  0  0  0  0  0  0  0  0
  -20.4090  -12.3250    0.4760 F   0  0  0  0  0  0  0  0  0  0  0  0
  -21.4920  -14.2070    0.4390 F   0  0  0  0  0  0  0  0  0  0  0  0
  -19.1900  -14.2800    0.9870 C   0  0  2  0  0  0  0  0  0  0  0  0
  -19.4280  -14.1090    2.3130 F   0  0  0  0  0  0  0  0  0  0  0  0
  -17.9780  -13.7360    0.7360 F   0  0  0  0  0  0  0  0  0  0  0  0
  -19.0870  -15.6120    0.7800 F   0  0  0  0  0  0  0  0  0  0  0  0
  1  2  1  6
  1 16  1  0
  1  3  1  0
  4  1  1  0
  4  5  1  1
  6  4  1  0
  7  9  1  6
  7  8  1  0
  7  4  1  0
 10  7  1  0
 10 11  1  6
 12 10  1  0
 13 14  1  0
 13 10  1  0
 15 13  2  0
 16 19  1  0
 16 17  1  6
 18 16  1  0
 19 21  1  6
 19 20  1  0
 19 22  1  0
 22 23  1  1
 24 22  1  0
 25 22  1  0
M  CHG  1  14  -1
M  END
